 &SALT_PLUME_PARM01
# turn off salt plume in Southern Ocean
 SaltPlumeSouthernOcean = .FALSE.
# optimized values from
# /skylla/arctic/output/opt3/OPT3_c81/input
 CriterionType      = 2
 SaltPlumeCriterion = 0.018D0
 SPovershoot        = 1.0D0
 PlumeMethod        = 1
 Npower             = 5
 &
