# *******************************
# Parameter for SHELFICE package
# ******************************
 &SHELFICE_PARM01
 SHELFICEtopoFile   = 'ICE_DRAFT_ICE_SHELF_CAVITY_PLUS_ICE_FRONT_LLC_0090.bin',
 SHELFICEconserve = .TRUE.,
 no_slip_shelfice = .false.,
 SHELFICEwriteState = .TRUE.,
 SHELFICEuseGammaFrict = .TRUE.,
 shiCdrag = 0.0005,
 SHELFICE_dumpFreq = 0.0,
/
