# ====================
# | Model parameters |
# ====================
#
# Continuous equation parameters
 &PARM01
 tRef               = 3*23.,3*22.,21.,2*20.,19.,2*18.,17.,2*16.,15.,14.,13.,
                      12.,11.,2*9.,8.,7.,2*6.,2*5.,3*4.,3*3.,4*2.,12*1.,
 sRef               = 50*34.5,
 no_slip_sides  = .TRUE.,
 no_slip_bottom = .TRUE.,
 viscAr=5.e-4,
 viscA4Grid = 0.25,
 diffKhT=0.E0,
 diffKhS=0.E0,
 bottomDragQuadratic = 0.002,
 implicitDiffusion=.TRUE.,
 implicitViscosity=.TRUE.,
 gravity=9.81,
 rhonil=1027.,
 rhoConstFresh=1000.,
 eosType='JMD95Z',
 implicitFreeSurface=.TRUE.,
 exactConserv=.TRUE.,
 useSingleCpuIO=.TRUE.,
 tempAdvScheme=7,
 saltAdvScheme=7,
 staggerTimeStep=.TRUE.,
 vectorInvariantMomentum=.TRUE.,
 useJamartWetPoints=.TRUE.,
 hFacMin=.3,
 hFacMinDr=50.,
 useRealFreshWaterFlux=.TRUE.,
 allowFreezing=.FALSE.,
 readBinaryPrec=64,
 writeBinaryPrec=32,
 debugLevel=1,
 /

# Elliptic solver parameters
 &PARM02
 cg2dMaxIters=300,
 cg2dTargetResWunit=1.E-10,
 /

# Time stepping parameters
 &PARM03
 nIter0=0,
 nTimeSteps=2,
 deltaT = 60.,
 abEps = 0.1,
 forcing_In_AB=.FALSE.,
 momDissip_In_AB=.FALSE.,
 pChkptFreq  =31536000.0,
 chkptFreq   =2635200.0,
 monitorFreq = 60.0,
 /

# Gridding parameters
 &PARM04
 usingCurvilinearGrid=.TRUE.,
 delR = 
    10.00, 10.00, 10.00, 10.00, 10.00, 10.00, 10.00, 10.01,
    10.03, 10.11, 10.32, 10.80, 11.76, 13.42, 16.04, 19.82, 24.85,
    31.10, 38.42, 46.50, 55.00, 63.50, 71.58, 78.90, 85.15, 90.18,
    93.96, 96.58, 98.25, 99.25,100.01,101.33,104.56,111.33,122.83,
    139.09,158.94,180.83,203.55,226.50,249.50,272.50,295.50,318.50,
    341.50,364.50,387.50,410.50,433.50,456.50,
 /

# Input datasets
 &PARM05
 bathyFile      ='bathy4320',
# hydrogThetaFile='WOA09_THETA_llc540_JAN.bin',
# hydrogSaltFile ='WOA09_SALT_llc540_JAN.bin',
 /
