# Packages
 &PACKAGES
 useCAL         = .TRUE.,
 useEXF         = .TRUE.,
 useSEAICE      = .TRUE.,
 useKPP         = .TRUE.,
 useTIDES       = .TRUE.,
 useSAL         = .TRUE.,
 useShelfIce    = .TRUE.,
 useSALT_PLUME  = .TRUE.,
 /
