 &SALT_PLUME_PARM01
 SPsalFRAC= 0.5D0,
 &
