# ====================
# | Model parameters |
# ====================
#
# Continuous equation parameters
 &PARM01
 tRef =  18.89, 18.89, 18.89, 18.89, 18.89, 18.87,
         18.85, 18.82, 18.80, 18.73, 18.65, 18.57,
         18.40, 18.22, 18.00, 17.74, 17.44, 17.12,
         16.76, 16.39, 15.98, 15.55, 15.08, 14.59,
         14.07, 13.53, 12.99, 12.47, 11.97, 11.49,
         11.02, 10.57, 10.12,  9.71,  9.27,  8.88,
          8.46,  8.09,  7.71,  7.37,  7.03,  6.72,
          6.42,  6.13,  5.86,  5.59,  5.34,  5.09,
          4.87,  4.65,  4.45,  4.26,  4.08,  3.91,
          3.75,  3.60,  3.47,  3.33,  3.20,  3.08,
          2.96,  2.84,  2.73,  2.62,  2.51,  2.42,
          2.32,  2.23,  2.14,  2.06,  1.98,  1.90,
          1.81,  1.73,  1.65,  1.57,  1.49,  1.41,
          1.33,  1.24,  1.15,  1.06,  0.98,  0.94,
          0.91,  0.92,  0.98,  0.98,  0.98,  0.98,
 sRef =  34.84, 34.84, 34.84, 34.84, 34.84, 34.84,
         34.85, 34.85, 34.85, 34.86, 34.87, 34.88,
         34.89, 34.90, 34.92, 34.94, 34.96, 34.98,
         35.00, 35.02, 35.04, 35.06, 35.07, 35.07,
         35.07, 35.05, 35.03, 35.01, 34.98, 34.95,
         34.92, 34.89, 34.85, 34.82, 34.79, 34.76,
         34.73, 34.71, 34.68, 34.66, 34.64, 34.62,
         34.61, 34.60, 34.59, 34.59, 34.58, 34.58,
         34.59, 34.59, 34.60, 34.60, 34.61, 34.62,
         34.63, 34.64, 34.65, 34.66, 34.67, 34.68,
         34.69, 34.70, 34.71, 34.71, 34.72, 34.72,
         34.73, 34.73, 34.74, 34.74, 34.74, 34.74,
         34.75, 34.74, 34.74, 34.74, 34.74, 34.74,
         34.74, 34.74, 34.73, 34.73, 34.73, 34.73,
         34.73, 34.72, 34.72, 34.72, 34.72, 34.72,
 viscAr= 5.6614e-04,
 no_slip_sides = .TRUE.,
 no_slip_bottom = .TRUE.,
 diffKrT=5.44e-7,
 diffKrS=5.44e-7,
 rhonil=1027.5,
 rhoConstFresh=999.8,
 eosType='JMD95Z',
 hFacMin=0.3,
 hFacInf=0.1,
 hFacSup=5.,
 implicitDiffusion=.TRUE.,
 implicitViscosity=.TRUE.,
 viscC4Leith=2.0,
 viscC4Leithd=2.0,
 viscA4GridMax=1.0,
 useAreaViscLength=.TRUE.,
 highOrderVorticity  = .TRUE.,
 bottomDragQuadratic = 0.0021,
 tempAdvScheme=7,
 saltAdvScheme=7,
 StaggerTimeStep=.TRUE.,
 multiDimAdvection=.TRUE.,
 vectorInvariantMomentum=.TRUE.,
 implicitFreeSurface=.TRUE.,
 exactConserv=.TRUE.,
 debuglevel=-1,
 convertFW2Salt=-1.,
 useRealFreshWaterFlux=.TRUE.,
 useSingleCPUio=.TRUE.,
 useSingleCpuInput=.TRUE.,
 globalFiles=.TRUE.,
 readBinaryPrec=32,
 writeBinaryPrec=32,
 temp_EvPrRn=0.,
 implicSurfPress = 0.6,
 implicDiv2DFlow = 0.6,
 /

# Elliptic solver parameters
 &PARM02
 cg2dMaxIters = 100,
 cg2dTargetResidual = 1.E-5,
 /

# Time stepping parameters
 &PARM03
 nIter0=354240,
 endtime=63072000.,
 deltaT = 90.,
 abEps = 0.1,
 forcing_In_AB=.FALSE.,
 momDissip_In_AB=.FALSE.,
 chkptFreq   = 259200.0,
 dumpfreq = 86400.,
 monitorFreq = 3600.,
 dumpInitAndLast=.FALSE.,
 /

# Gridding parameters
 &PARM04
 usingCurvilinearGrid=.TRUE.,
 delR = 3.6311,    3.6933,   3.7563,   3.8201,   3.8845,   3.9495,
        4.0144,    4.0783,   4.1377,   4.1933,   4.2653,   4.3537,
        4.4521,    4.5596,   4.6746,   4.7944,   4.9169,   5.0408,
        5.1663,    5.2946,   5.4278,   5.5678,   5.7172,   5.8787,
        6.0534,    6.2411,   6.4399,   6.6483,   6.8663,   7.0954,
        7.3373,    7.5920,   7.8570,   8.1277,   8.3990,   8.6670,
        8.9299,    9.1870,   9.4382,   9.6833,   9.9233,  10.1606,
        10.3976,  10.6353,  10.8727,  11.1087,  11.3432,  11.5780,
        11.8153,  12.0574,  12.3063,  12.5643,  12.8331,  13.1120,
        13.3986,  13.6887,  13.9779,  14.2621,  14.5382,  14.8022,
        15.0485,  15.2714,  15.4692,  15.6458,  15.8094,  15.9670,
        16.1202,  16.2666,  16.4040,  16.5331,  16.6563,  16.7742,
        16.8838,  16.9819,  17.0702,  17.1569,  17.2543,  17.3722,
        17.5139,  17.6763,  17.8550,  18.0474,  18.2539,  18.4746,
        18.7069,  18.9461,  19.1884,  19.4329,  19.6818,  19.9368,
        20.1980,  20.4642,  20.7346,  21.0113,  21.2984,  21.6003,
        21.9193,  22.2571,  22.6150,  22.9926,  23.3856,  23.7882,
        24.1965,  24.6096,  25.0298,  25.4618,  25.9118,  26.3879,
        26.8983,  27.4500,  28.0459,  28.6838,  29.3592,  30.0706,
        30.8211,  31.6184,  32.4624,  33.3292,  34.1866,  35.0329,
        35.9101,  36.8768,  37.9764,  39.2249,  40.6159,  42.1320,
        43.7609,  45.5047,  47.3709,  49.3439,  51.3730,  53.4157,
        55.4616,  57.5057,  59.5463,  61.5923,  63.6487,  65.7114,
        67.7776,  69.8232,  71.8113,  73.7508,  75.6801,  77.6565,
        79.7374,  81.8419,  83.9303,  86.0404,  88.2454,  90.6056,
        93.2588,  96.3737, 100.0773, 104.3520, 109.4929, 116.5894,
       123.2988, 129.6052, 135.8062, 142.0128, 148.2655, 154.5793,
       160.9588, 167.4032, 173.8477, 180.2921, 186.7366, 193.1811,
       199.6255, 206.0700, 212.5144, 218.9589, 225.4033,
 /

# Input datasets
 &PARM05
 bathyFile      ='LLC1080_GEBCO24_depth_v1.bin',
# hydrogThetaFile='Jan2010_THETA_1080x14040x90_r4',
# hydrogSaltFile ='Jan2010_SALT_1080x14040x90_r4',
 /
