# *******************************
# Parameter for SHELFICE package
# ******************************
 &SHELFICE_PARM01
 SHELFICEboundaryLayer = .TRUE.,
 SHELFICEtopoFile   = 'LLC1080_bedmachine_GrnV5_AntV2_ice_shelf_v1.2a.bin',
 SHELFICEconserve = .TRUE.,
 no_slip_shelfice = .false.,
 SHELFICEwriteState = .TRUE.,
 SHELFICEuseGammaFrict = .TRUE.,
/
 &
