# Packages
 &PACKAGES
 useCAL         = .TRUE.,
 useEXF         = .TRUE.,
 useSEAICE      = .TRUE.,
 useKPP         = .TRUE.,
 useFRAZIL      = .TRUE.,
 /
