# Packages
 &PACKAGES
 useCAL         = .TRUE.,
 useEXF         = .TRUE.,
 useKPP         = .TRUE.,
 useFRAZIL      = .TRUE.,
 &
