# Packages
 &PACKAGES
 useCAL         = .TRUE.,
 useEXF         = .TRUE.,
 useSEAICE      = .FALSE.,
 useKPP         = .FALSE.,
 useTIDES       = .FALSE.,
 useShelfIce    = .FALSE.,
 useSALT_PLUME  = .FALSE.,
 /
