#
# *******************
# Calendar Parameters
# *******************
 &CAL_NML
 TheCalendar='gregorian',
 startDate_1=20230321,
 startDate_2=230000,
 calendarDumps = .TRUE.,
 &
