# ===================================
# | Parameters for SHELFICE package |
# ===================================
 &SHELFICE_PARM01
 SHELFICEboundaryLayer = .TRUE.,
 SHELFICEtopoFile='icetopo.exp1',
# SHELFICEloadAnomalyFile = 'phi0surf.exp1.jmd95z',
 SHELFICEconserve = .TRUE.,
 SHELFICEuseGammaFrict = .TRUE.,
 no_slip_shelfice = .false.,
 SHELFICEwriteState = .TRUE.,
 &
