# Packages
 &PACKAGES
 useShelfIce=.TRUE.,
 useFRAZIL      = .TRUE.,
 &
