#
# *******************
# Calendar Parameters
# *******************
 &CAL_NML
 TheCalendar='gregorian',
 startDate_1=20230123,
 startDate_2=160000,
 calendarDumps = .TRUE.,
 &
