# Packages
 &PACKAGES
 useCAL         = .TRUE.,
 useEXF         = .TRUE.,
 useKPP         = .TRUE.,
 useOBCS        = .TRUE.,
 /
