# ====================
# | Model parameters |
# ====================
#
# Continuous equation parameters
 &PARM01
 tRef = 18.89, 18.89, 18.89, 18.89, 18.89, 18.87, 18.85, 18.82, 18.8, 18.73, 18.65, 18.57, 
        18.4, 18.22, 18, 17.74, 17.44, 17.12, 16.76, 16.39, 15.98, 15.55, 15.08, 14.59, 
        14.07, 13.53, 12.99, 12.47, 11.97, 11.49, 11.02, 10.57, 10.12, 9.735, 9.339, 8.993, 
        8.649, 8.326, 8.033, 7.742, 7.486, 7.239, 7, 6.785, 6.58, 6.381, 6.191, 6.014, 
        5.843, 5.676, 5.517, 5.367, 5.219, 5.075, 4.949, 4.825, 4.702, 4.588, 4.479, 4.376, 
        4.276, 4.182, 4.089, 4.004, 3.918, 3.84, 3.762, 3.69, 3.619, 3.557, 3.497, 3.436, 
        3.374, 3.314, 3.258, 3.203, 3.153, 3.103, 3.055, 3.007, 2.959, 2.913, 2.868, 2.824, 
        2.784, 2.743, 2.704, 2.666, 2.627, 2.59, 2.553, 2.516, 2.486, 2.458, 2.429, 2.399, 
        2.369, 2.339, 2.31, 2.284, 2.258, 2.233, 2.208, 2.184, 2.159, 2.136, 2.115, 2.095, 
        2.074, 2.054, 2.035, 2.016, 1.997, 1.977, 1.959, 1.941, 1.923, 1.905, 1.887, 1.868, 
        1.849, 1.83, 1.811, 1.795, 1.779, 1.763, 1.747, 1.732, 1.717, 1.702, 1.687, 1.673, 
        1.658, 1.644, 1.63, 1.616, 1.603, 1.589, 1.575, 1.562, 1.55, 1.537, 1.524, 1.512, 
        1.499, 1.486, 1.475, 1.463, 1.451, 1.439, 1.428, 1.416, 1.405, 1.394, 1.383, 1.372, 
        1.361, 1.35, 1.34, 1.329, 1.317, 1.306, 1.295, 1.284, 1.272, 1.261, 1.25, 1.239, 
        1.228, 1.218, 1.208, 1.197, 1.187, 1.177, 1.166, 1.156, 1.146, 1.136, 1.127, 1.117, 
        1.108, 1.098, 1.089, 1.079, 1.07, 1.06, 1.052, 1.045, 1.037, 1.029, 1.021, 1.013, 
        1.006, 0.9979, 0.9901, 0.9823, 0.9775, 0.9739, 0.9704, 0.9668, 0.9632, 0.9597, 0.9561, 0.9525, 
        0.949, 0.9454, 0.9418, 0.9388, 0.9364, 0.9339, 0.9315, 0.929, 0.9266, 0.9241, 0.9217, 0.9192, 
        0.9168, 0.9143, 0.9119, 0.9102, 0.9109, 0.9117, 0.9124, 0.9132, 0.9139, 0.9147, 0.9154, 0.9161, 
        0.9169, 0.9176, 0.9184, 0.9191, 0.9199, 0.9235, 0.9276, 0.9317, 0.9358, 0.9399, 0.944, 0.9481, 
        0.9522, 0.9563, 0.9604, 0.9645, 0.9686, 0.9727, 0.9768, 0.98, 0.98, 0.98, 0.98, 0.98, 
        0.98, 0.98, 0.98, 0.98, 0.98, 0.98, 0.98, 0.98, 0.98, 0.98, 0.98, 0.98, 
 sRef = 34.84, 34.84, 34.84, 34.84, 34.84, 34.84, 34.85, 34.85, 34.85, 34.86, 34.87, 34.88, 
        34.89, 34.9, 34.92, 34.94, 34.96, 34.98, 35, 35.02, 35.04, 35.06, 35.07, 35.07, 
        35.07, 35.05, 35.03, 35.01, 34.98, 34.95, 34.92, 34.89, 34.85, 34.82, 34.79, 34.77, 
        34.74, 34.72, 34.71, 34.68, 34.67, 34.65, 34.64, 34.62, 34.62, 34.61, 34.6, 34.6, 
        34.59, 34.59, 34.59, 34.58, 34.58, 34.58, 34.59, 34.59, 34.59, 34.59, 34.6, 34.6, 
        34.6, 34.6, 34.61, 34.61, 34.62, 34.62, 34.63, 34.63, 34.64, 34.64, 34.65, 34.65, 
        34.66, 34.66, 34.67, 34.67, 34.67, 34.68, 34.68, 34.69, 34.69, 34.69, 34.7, 34.7, 
        34.71, 34.71, 34.71, 34.71, 34.71, 34.71, 34.72, 34.72, 34.72, 34.72, 34.72, 34.72, 
        34.73, 34.73, 34.73, 34.73, 34.73, 34.73, 34.73, 34.74, 34.74, 34.74, 34.74, 34.74, 
        34.74, 34.74, 34.74, 34.74, 34.74, 34.74, 34.74, 34.74, 34.74, 34.74, 34.74, 34.74, 
        34.75, 34.75, 34.75, 34.75, 34.75, 34.74, 34.74, 34.74, 34.74, 34.74, 34.74, 34.74, 
        34.74, 34.74, 34.74, 34.74, 34.74, 34.74, 34.74, 34.74, 34.74, 34.74, 34.74, 34.74, 
        34.74, 34.74, 34.74, 34.74, 34.74, 34.74, 34.74, 34.74, 34.74, 34.74, 34.74, 34.74, 
        34.74, 34.74, 34.74, 34.74, 34.74, 34.74, 34.74, 34.74, 34.74, 34.74, 34.74, 34.74, 
        34.74, 34.74, 34.74, 34.74, 34.73, 34.73, 34.73, 34.73, 34.73, 34.73, 34.73, 34.73, 
        34.73, 34.73, 34.73, 34.73, 34.73, 34.73, 34.73, 34.73, 34.73, 34.73, 34.73, 34.73, 
        34.73, 34.73, 34.73, 34.73, 34.73, 34.73, 34.73, 34.73, 34.73, 34.73, 34.73, 34.73, 
        34.73, 34.73, 34.73, 34.73, 34.73, 34.73, 34.73, 34.73, 34.73, 34.73, 34.73, 34.73, 
        34.73, 34.73, 34.73, 34.73, 34.73, 34.73, 34.73, 34.73, 34.73, 34.73, 34.72, 34.72, 
        34.72, 34.72, 34.72, 34.72, 34.72, 34.72, 34.72, 34.72, 34.72, 34.72, 34.72, 34.72, 
        34.72, 34.72, 34.72, 34.72, 34.72, 34.72, 34.72, 34.72, 34.72, 34.72, 34.72, 34.72, 
        34.72, 34.72, 34.72, 34.72, 34.72, 34.72, 34.72, 34.72, 34.72, 34.72, 34.72, 34.72, 
 viscAr= 0,
 no_slip_sides = .TRUE.,
 no_slip_bottom = .TRUE.,
 diffKrT=0,
 diffKrS=0,
 rhonil=1027.5,
 rhoConstFresh=999.8,
 eosType='JMD95Z',
 hFacMin=0.3,
 hFacInf=0.1,
 hFacSup=5.,
 implicitDiffusion=.TRUE.,
 implicitViscosity=.TRUE.,
 viscC4Leith=2.15,
 viscC4Leithd=2.15,
 viscA4GridMax=0.8,
 useAreaViscLength=.TRUE.,
 highOrderVorticity  = .TRUE.,
 bottomDragQuadratic = 0.0021,
 tempAdvScheme=7,
 saltAdvScheme=7,
 StaggerTimeStep=.TRUE.,
 multiDimAdvection=.TRUE.,
 vectorInvariantMomentum=.TRUE.,
 implicitFreeSurface=.TRUE.,
 exactConserv=.TRUE.,
 debuglevel=-1,
 convertFW2Salt=-1.,
 useRealFreshWaterFlux=.TRUE.,
 useSingleCPUio=.TRUE.,
 useSingleCpuInput=.TRUE.,
 readBinaryPrec=32,
 writeBinaryPrec=32,
 temp_EvPrRn=0.,
 implicSurfPress = 0.6,
 implicDiv2DFlow = 0.6,
 nonHydrostatic = .TRUE.,
 /

# Elliptic solver parameters
 &PARM02
 cg2dMaxIters = 100,
 cg2dTargetResidual = 1.E-5,
 &

# Time stepping parameters
 &PARM03
 nIter0=259200.,
 endtime=6912000.,
 deltaT = 25.,
 abEps = 0.1,
 forcing_In_AB=.FALSE.,
 momDissip_In_AB=.FALSE.,
 dumpfreq = 0.,
 chkptFreq   = 216000.,
 monitorFreq = 25.,
 dumpInitAndLast=.FALSE.,
 /

# Gridding parameters
 &PARM04
 usingCurvilinearGrid=.TRUE.,
 delR = 1, 1.14, 1.3, 1.49, 1.7, 1.93, 2.2, 2.5, 2.84, 3.21, 3.63, 4.1, 
        4.61, 5.18, 5.79, 6.47, 7.2, 7.98, 8.83, 9.73, 10.69, 11.7, 12.76, 13.87, 
        15.03, 16.22, 17.45, 18.7, 19.97, 21.27, 22.56, 23.87, 25, 25, 25, 25, 
        25, 25, 25, 25, 25, 25, 25, 25, 25, 25, 25, 25, 
        25, 25, 25, 25, 25, 25, 25, 25, 25, 25, 25, 25, 
        25, 25, 25, 25, 25, 25, 25, 25, 25, 25, 25, 25, 
        25, 25, 25, 25, 25, 25, 25, 25, 25, 25, 25, 25, 
        25, 25, 25, 25, 25, 25, 25, 25, 25, 25, 25, 25, 
        25, 25, 25, 25, 25, 25, 25, 25, 25, 25, 25, 25, 
        25, 25, 25, 25, 25, 25, 25, 25, 25, 25, 25, 25, 
        25, 25, 25, 25, 25, 25, 25, 25, 25, 25, 25, 25, 
        25, 25, 25, 25, 25, 25, 25, 25, 25, 25, 25, 25, 
        25, 25, 25, 25, 25, 25, 25, 25, 25, 25, 25, 25, 
        25, 25, 25, 25, 25, 25, 25, 25, 25, 25, 25, 25, 
        25, 25, 25, 25, 25, 25, 25, 25, 25, 25, 25, 25, 
        25, 25, 25, 25, 25, 25, 25, 25, 25, 25, 25, 25, 
        25, 25, 25, 25, 25, 25, 25, 25, 25, 25, 25, 25, 
        25, 25, 25, 25, 25, 25, 25, 25, 25, 25, 25, 25, 
        25, 25, 25, 25, 25, 25, 25, 25, 25, 25, 25, 25, 
        25, 25, 25, 25, 25, 25, 25, 25, 25, 25, 25, 25, 
        25, 25, 25, 25, 25, 25, 25, 25, 25, 25, 25, 25, 
        25, 25, 25, 25, 25, 25, 25, 25, 25, 25, 25, 25,
 /

# Input datasets
 &PARM05
 bathyFile      ='BATHY_2304x3744_Box56',
 hydrogThetaFile='0000597888_Theta_2304.3744.264',
 hydrogSaltFile ='0000597888_Salt_2304.3744.264',
 uVelInitFile   ='0000597888_U_2304.3744.264',
 vVelInitFile   ='0000597888_V_2304.3744.264',
# pSurfInitFile  ='0000597888_Eta_2304.3744',
 /
