 &diagnostics_list
   frequency(1) = 86400.,
    fields(1,1) = 'KPPRigs ',
    filename(1) = 'KPPRigs',
   frequency(2) = 86400.,
    fields(1,2) = 'KPPdiffT',
    filename(2) = 'KPPdiffT',
   frequency(3) = 86400.,
    fields(1,3) = 'KPPviscA',
    filename(3) = 'KPPviscA',
   frequency(4) = 86400.,
    fields(1,4) = 'KPPhbl  ',
    filename(4) = 'KPPhbl',

 &
 &DIAG_STATIS_PARMS
 &
