 &GCHEM_PARM01
  useDIC=.FALSE.,
  useBLING=.TRUE.,
  nsubtime=1,
 &
