# ====================
# | Model parameters |
# ====================
#
# Continuous equation parameters
 &PARM01
 tRef = 13.8423, 13.8096, 13.7388, 13.6658, 13.5953, 13.5284,
        13.4615, 13.3656, 13.2458, 13.1242, 13.0034, 12.8681,
        12.7397, 12.5953, 12.4403, 12.2756, 12.1096, 11.9504,
        11.8000, 11.6656, 11.5081, 11.3601, 11.2173, 11.0764,
        10.9314, 10.7820, 10.6280, 10.4859, 10.3398, 10.1888,
        10.0409,  9.9061,  9.7666,  9.6231,  9.4882,  9.3489,
         9.2076,  9.0797,  8.9483,  8.8128,  8.6729,  8.5297,
         8.4013,  8.2724,  8.1464,  8.0236,  7.8986,  7.7724,
         7.6447,  7.5310,  7.4150,  7.2848,  7.1518,  7.0344,
         6.9140,  6.7873,  6.6605,  6.5383,  6.4179,  6.2995,
         6.1804,  6.0617,  5.9559,  5.8488,  5.7406,  5.6376,
         5.5341,  5.4298,  5.3329,  5.2374,  5.1412,  5.0449,
         4.9481,  4.8508,  4.7635,  4.6786,  4.5931,  4.5171,
         4.4419,  4.3660,  4.2893,  4.2117,  4.1328,  4.0510,
         3.9682,  3.8923,  3.8228,  3.7524,  3.6915,  3.6308,
         3.5697,  3.5083,  3.4462,  3.3895,  3.3326,  3.2732,
         3.2118,  3.1518,  3.0977,  3.0432,  2.9973,  2.9506,
         2.9017,  2.8518,  2.8010,  2.7493,  2.7020,  2.6547,
         2.6132,  2.5711,  2.5240,  2.4819,  2.4536,  2.4139,
         2.3649,  2.3268,  2.2870,  2.2425,  2.2021,  2.1632,
         2.1256,  2.0814,  2.0371,  1.9939,  1.9521,  1.8972,
         1.8567,  1.8191,  1.7771,  1.7309,  1.6871,  1.6468,
         1.6099,  1.5757,  1.5374,  1.4969,  1.4547,  1.4166,
         1.3827,  1.3395,  1.2970,  1.2569,  1.2270,  1.1954,
         1.1610,  1.1282,  1.1033,  1.0654,  1.0340,  0.9909,
         0.9573,  0.9311,  0.9047,  0.8829,  0.8524,  0.8305,
         0.8305,  0.8221,  0.8110,  0.8070,  0.8070,  0.8070,
         0.8070,  0.8070,  0.8070,  0.8070,  0.8070,  0.8070,
         0.8070,  0.8070,  0.8070,  0.8070,  0.8070,
 sRef = 33.7491, 33.8173, 33.9114, 33.9835, 34.0509, 34.1181,
        34.1785, 34.2226, 34.2621, 34.3004, 34.3406, 34.3861,
        34.4396, 34.4793, 34.5120, 34.5411, 34.5676, 34.6016,
        34.6296, 34.6533, 34.6853, 34.7035, 34.7377, 34.7507,
        34.7641, 34.7779, 34.7921, 34.8006, 34.8092, 34.8180,
        34.8256, 34.8303, 34.8352, 34.8399, 34.8394, 34.8388,
        34.8382, 34.8366, 34.8350, 34.8318, 34.8263, 34.8206,
        34.8142, 34.8077, 34.8010, 34.7942, 34.7871, 34.7796,
        34.7718, 34.7637, 34.7554, 34.7459, 34.7362, 34.7286,
        34.7207, 34.7126, 34.7045, 34.6969, 34.6897, 34.6828,
        34.6756, 34.6684, 34.6625, 34.6565, 34.6505, 34.6458,
        34.6413, 34.6366, 34.6331, 34.6297, 34.6264, 34.6236,
        34.6209, 34.6182, 34.6167, 34.6156, 34.6145, 34.6138,
        34.6132, 34.6125, 34.6129, 34.6132, 34.6139, 34.6157,
        34.6175, 34.6195, 34.6215, 34.6235, 34.6259, 34.6284,
        34.6303, 34.6315, 34.6326, 34.6363, 34.6403, 34.6430,
        34.6447, 34.6470, 34.6509, 34.6549, 34.6619, 34.6689,
        34.6735, 34.6779, 34.6807, 34.6832, 34.6869, 34.6908,
        34.6938, 34.6968, 34.7000, 34.7031, 34.7057, 34.7079,
        34.7096, 34.7120, 34.7146, 34.7173, 34.7202, 34.7230,
        34.7256, 34.7281, 34.7329, 34.7383, 34.7400, 34.7407,
        34.7424, 34.7444, 34.7477, 34.7521, 34.7547, 34.7553,
        34.7563, 34.7576, 34.7567, 34.7550, 34.7541, 34.7535,
        34.7532, 34.7511, 34.7490, 34.7472, 34.7468, 34.7461,
        34.7454, 34.7447, 34.7439, 34.7438, 34.7433, 34.7423,
        34.7408, 34.7386, 34.7364, 34.7329, 34.7293, 34.7275,
        34.7229, 34.7208, 34.7204, 34.7207, 34.7201, 34.7206,
        34.7200, 34.7189, 34.7200, 34.7198, 34.7197, 34.7196,
        34.7194, 34.7193, 34.7191, 34.7190, 34.7188,
 viscAr= 1.e-04,
 diffKrT=1.e-5,
 diffKrS=1.e-5,
 rhonil=1029.,
 rhoConstFresh=1000.,
 eosType='JMD95Z',
 hFacMin=0.1,
 hFacInf=0.05,
 hFacSup=5.,
 implicitDiffusion=.TRUE.,
 implicitViscosity=.TRUE.,
 viscC4Leith=2.15,
 viscC4Leithd=2.15,
 viscA4GridMax=0.8,
 useAreaViscLength=.TRUE.,
 bottomDragQuadratic = 0.0021,
 selectImplicitDrag = 2,
 selectP_inEOS_Zc = 1,
 selectVortScheme = 2,
 selectCoriScheme = 1,
 selectBotDragQuadr = 1,
 tempAdvScheme=7,
 saltAdvScheme=7,
 StaggerTimeStep=.TRUE.,
 vectorInvariantMomentum=.TRUE.,
 exactConserv=.TRUE.,
 debuglevel=-1,
 useRealFreshWaterFlux=.TRUE.,
 readBinaryPrec=32,
 writeBinaryPrec=32,
 temp_EvPrRn=0.,
 implicSurfPress = 0.6,
 implicDiv2DFlow = 0.6,
 select_rStar=2,
 nonlinFreeSurf=4,
 /

# Elliptic solver parameters
 &PARM02
 /

# Time stepping parameters
 &PARM03
 nIter0 = 28800,
 endtime= 31536000.,
 deltaT = 60.,
 abEps  = 0.1,
 forcing_In_AB=.FALSE.,
 momDissip_In_AB=.FALSE.,
 dumpfreq = 3600.,
 monitorFreq = 60.,
 dumpInitAndLast=.FALSE.,
 /

# Gridding parameters
 &PARM04
 usingCurvilinearGrid=.TRUE.,
 pCellMix_select = 22,
 pCellMix_viscAr = 173*4.e-4,
 pCellMix_diffKr = 173*2.e-4,
 delR = 3.6311,    3.6933,   3.7563,   3.8201,   3.8845,   3.9495,
        4.0144,    4.0783,   4.1377,   4.1933,   4.2653,   4.3537,
        4.4521,    4.5596,   4.6746,   4.7944,   4.9169,   5.0408,
        5.1663,    5.2946,   5.4278,   5.5678,   5.7172,   5.8787,
        6.0534,    6.2411,   6.4399,   6.6483,   6.8663,   7.0954,
        7.3373,    7.5920,   7.8570,   8.1277,   8.3990,   8.6670,
        8.9299,    9.1870,   9.4382,   9.6833,   9.9233,  10.1606,
        10.3976,  10.6353,  10.8727,  11.1087,  11.3432,  11.5780,
        11.8153,  12.0574,  12.3063,  12.5643,  12.8331,  13.1120,
        13.3986,  13.6887,  13.9779,  14.2621,  14.5382,  14.8022,
        15.0485,  15.2714,  15.4692,  15.6458,  15.8094,  15.9670,
        16.1202,  16.2666,  16.4040,  16.5331,  16.6563,  16.7742,
        16.8838,  16.9819,  17.0702,  17.1569,  17.2543,  17.3722,
        17.5139,  17.6763,  17.8550,  18.0474,  18.2539,  18.4746,
        18.7069,  18.9461,  19.1884,  19.4329,  19.6818,  19.9368,
        20.1980,  20.4642,  20.7346,  21.0113,  21.2984,  21.6003,
        21.9193,  22.2571,  22.6150,  22.9926,  23.3856,  23.7882,
        24.1965,  24.6096,  25.0298,  25.4618,  25.9118,  26.3879,
        26.8983,  27.4500,  28.0459,  28.6838,  29.3592,  30.0706,
        30.8211,  31.6184,  32.4624,  33.3292,  34.1866,  35.0329,
        35.9101,  36.8768,  37.9764,  39.2249,  40.6159,  42.1320,
        43.7609,  45.5047,  47.3709,  49.3439,  51.3730,  53.4157,
        55.4616,  57.5057,  59.5463,  61.5923,  63.6487,  65.7114,
        67.7776,  69.8232,  71.8113,  73.7508,  75.6801,  77.6565,
        79.7374,  81.8419,  83.9303,  86.0404,  88.2454,  90.6056,
        93.2588,  96.3737, 100.0773, 104.3520, 109.4929, 116.5894,
       123.2988, 129.6052, 135.8062, 142.0128, 148.2655, 154.5793,
       160.9588, 167.4032, 173.8477, 180.2921, 186.7366, 193.1811,
       199.6255, 206.0700, 212.5144, 218.9589, 225.4033,
 /

# Input datasets
 &PARM05
 bathyFile      ='GEBCO2025_on_LLC1080_v13b.bin',
 hydrogThetaFile='../run_1080_prandtl10_dy001_dy020/Theta.0000028800.data',
 hydrogSaltFile ='../run_1080_prandtl10_dy001_dy020/Salt.0000028800.data',
 uVelInitFile   ='../run_1080_prandtl10_dy001_dy020/U.0000028800.data',
 vVelInitFile   ='../run_1080_prandtl10_dy001_dy020/V.0000028800.data',
 pSurfInitFile  ='../run_1080_prandtl10_dy001_dy020/Eta.0000028800.data',
 /
