# *******************************
# Parameter for SHELFICE package
# ******************************
 &SHELFICE_PARM01
 SHELFICEboundaryLayer = .TRUE.,
 SHELFICEtopoFile   = 'crood_llc8640_icetopo.bin',
# SHELFICEloadAnomalyFile = 'LLC1080_loadAnomaly_v1.2.bin',
 SHELFICEconserve = .TRUE.,
 no_slip_shelfice = .false.,
 SHELFICEwriteState = .TRUE.,
 SHELFICEuseGammaFrict = .TRUE.,
 SHELFICE_dumpFreq = 0.0,
/
