# Packages
 &PACKAGES
 useCAL        = .TRUE.,
 useEXF        = .TRUE.,
 useSEAICE     = .TRUE.,
 useKPP        = .TRUE.,
 useSALT_PLUME = .TRUE.,
 useGMRedi     = .TRUE.,
 useDiagnostics = .TRUE.,
 /
