# KPP parameters
 &KPP_PARM01
 KPPmixingMaps   = .FALSE.,
 KPPwriteState   = .FALSE.,
 kpp_dumpFreq    = 0.,
 kpp_tavefreq    = 0.,
 Ricr            = 0.3,
 RicrEq          = 0.2,
 Riinfty         = 0.7,
 &
