# ====================
# | Model parameters |
# ====================
#
# Continuous equation parameters
 &PARM01
 tRef =  264*10.,
 sRef =  264*34.,
 viscAr= 5.6614e-04,
 no_slip_sides = .TRUE.,
 no_slip_bottom = .TRUE.,
 diffKrT=5.44e-7,
 diffKrS=5.44e-7,
 rhonil=1027.5,
 rhoConstFresh=999.8,
 eosType='JMD95Z',
 hFacMin=0.3,
 hFacInf=0.1,
 hFacSup=5.,
 implicitDiffusion=.TRUE.,
 implicitViscosity=.TRUE.,
 viscC4Leith=2.15,
 viscC4Leithd=2.15,
 viscA4GridMax=0.8,
 useAreaViscLength=.TRUE.,
 highOrderVorticity  = .TRUE.,
 bottomDragQuadratic = 0.0021,
 tempAdvScheme=7,
 saltAdvScheme=7,
 StaggerTimeStep=.TRUE.,
 multiDimAdvection=.TRUE.,
 vectorInvariantMomentum=.TRUE.,
 implicitFreeSurface=.TRUE.,
 exactConserv=.TRUE.,
 debuglevel=-1,
 convertFW2Salt=-1.,
 useRealFreshWaterFlux=.TRUE.,
 useSingleCPUio=.FALSE.,
 useSingleCpuInput=.TRUE.,
 globalFiles=.TRUE.,
 readBinaryPrec=32,
 writeBinaryPrec=32,
 temp_EvPrRn=0.,
 implicSurfPress = 0.6,
 implicDiv2DFlow = 0.6,
 /

# Elliptic solver parameters
 &PARM02
 cg2dMaxIters = 100,
 cg2dTargetResidual = 1.E-5,
 &

# Time stepping parameters
 &PARM03
 nIter0=0,
 endtime=9158400.,
 deltaT = 6.,
 abEps = 0.1,
 forcing_In_AB=.FALSE.,
 momDissip_In_AB=.FALSE.,
 dumpfreq = 600.,
 chkptFreq   = 43200.0,
 monitorFreq = 60.,
 dumpInitAndLast=.FALSE.,
 /

# Gridding parameters
 &PARM04
 usingCurvilinearGrid=.TRUE.,
 delR =
    0.3333    0.3333    0.3334    0.3800    0.3800    0.3800
    0.4333    0.4333    0.4334    0.4966    0.4967    0.4967
    0.5666    0.5667    0.5667    0.6433    0.6433    0.6434
    0.7333    0.7333    0.7334    0.8333    0.8333    0.8334
    0.9466    0.9467    0.9467    1.0700    1.0700    1.0700
    1.2100    1.2100    1.2100    1.3666    1.3667    1.3667
    1.5366    1.5367    1.5367    1.7266    1.7267    1.7267
    1.9300    1.9300    1.9300    2.1566    2.1567    2.1567
    2.4000    2.4000    2.4000    2.6600    2.6600    2.6600
    2.9433    2.9433    2.9434    3.2433    3.2433    3.2434
    3.5633    3.5633    3.5634    3.9000    3.9000    3.9000
    4.2533    4.2533    4.2534    4.6233    4.6233    4.6234
    5.0100    5.0100    5.0100    5.4066    5.4067    5.4067
    5.8166    5.8167    5.8167    6.2333    6.2333    6.2334
    6.6566    6.6567    6.6567    7.0900    7.0900    7.0900
    7.5200    7.5200    7.5200    7.9566    7.9567    7.9567
    8.3900    8.3900    8.3900    8.8200    8.8200    8.8200
    9.2466    9.2467    9.2467    9.6666    9.6667    9.6667
   10.0800   10.0800   10.0800   10.4833   10.4833   10.4834
   10.8833   10.8833   10.8834   11.2733   11.2733   11.2734
   11.6566   11.6567   11.6567   12.0300   12.0300   12.0300
   12.4000   12.4000   12.4000   12.7633   12.7633   12.7634
   13.1233   13.1233   13.1234   13.4833   13.4833   13.4834
   13.8433   13.8433   13.8434   14.2066   14.2067   14.2067
   14.5766   14.5767   14.5767   14.9566   14.9567   14.9567
   15.3500   15.3500   15.3500   15.7600   15.7600   15.7600
   16.1866   16.1867   16.1867   16.6433   16.6433   16.6434
   17.1266   17.1267   17.1267   17.6433   17.6433   17.6434
   18.2033   18.2033   18.2034   18.8066   18.8067   18.8067
   19.4600   19.4600   19.4600   20.1766   20.1767   20.1767
   20.9566   20.9567   20.9567   21.8100   21.8100   21.8100
   22.7466   22.7467   22.7467   23.7766   23.7767   23.7767
   24.9100   24.9100   24.9100   26.1566   26.1567   26.1567
   27.5366   27.5367   27.5367   29.0566   29.0567   29.0567
   30.7366   30.7367   30.7367   32.5966   32.5967   32.5967
   34.6533   34.6533   34.6534   36.9300   36.9300   36.9300
   39.4500   39.4500   39.4500   42.2433   42.2433   42.2434
   45.3366   45.3367   45.3367   48.7666   48.7667   48.7667
   52.5700   52.5700   52.5700   56.7833   56.7833   56.7834
   61.4566   61.4567   61.4567   66.6300   66.6300   66.6300
   72.3633   72.3633   72.3634   78.7100   78.7100   78.7100
   85.7366   85.7367   85.7367   93.5000   93.5000   93.5000
  102.0800  102.0800  102.0800  111.5466  111.5467  111.5467
  121.9766  121.9767  121.9767  133.46    133.46    133.46
  /

# Input datasets
 &PARM05
 bathyFile      ='BATHY_2304x3744_Box56',
 hydrogThetaFile='0000597888_Theta_2304.3744.264',
 hydrogSaltFile ='0000597888_Salt_2304.3744.264',
 uVelInitFile   ='0000597888_U_2304.3744.264',
 vVelInitFile   ='0000597888_V_2304.3744.264',
 pSurfInitFile  ='0000597888_Eta_2304.3744',
 /
