# *********************
# External Forcing Data
# *********************
#
 &EXF_NML_01
#TO COMBINE WITH ALLOW_ZENITH_ANGLE:
 exf_albedo        = 0.1,
 useExfZenIncoming = .TRUE., 
 select_ZenAlbedo  = 1,
#
 ocean_emissivity  = 0.97,
 ice_emissivity    = 0.95,
 snow_emissivity   = 0.95,
 exf_iprec         = 32,
 exf_yftype        = 'RL',
 useExfYearlyFields= .TRUE.,
 useExfCheckRange  = .FALSE.,
 useRelativeWind   = .FALSE.,
 &
#
 &EXF_NML_02
 apressurefile     = 'era5/ERA5_pres',
 atempfile         = 'era5/ERA5_tmp2m_degC',
 aqhfile           = 'era5/ERA5_spfh2m',
 precipfile        = 'era5/ERA5_rain',
 uwindfile         = 'era5/ERA5_u10m',
 vwindfile         = 'era5/ERA5_v10m',
 swdownfile        = 'era5/ERA5_dsw',
 lwdownfile        = 'era5/ERA5_dlw',
 runofffile        = 'runoff-360x180x12.bin',
#
 apressurestartdate1 = 19920101,
 apressureperiod   = 3600.0,
#
 atempstartdate1   = 19920101,
 atempstartdate2   = 000000,
 atempperiod       = 3600.0,
#
 aqhstartdate1     = 19920101,
 aqhstartdate2     = 000000,
 aqhperiod         = 3600.0,
#
 precipstartdate1  = 19920101,
 precipstartdate2  = 003000,
 precipperiod      = 3600.0,
#
 uwindstartdate1   = 19920101,
 uwindstartdate2   = 000000,
 uwindperiod       = 3600.0,
#
 vwindstartdate1   = 19920101,
 vwindstartdate2   = 000000,
 vwindperiod       = 3600.0,
#
 swdownstartdate1  = 19920101,
 swdownstartdate2  = 003000,
 swdownperiod      = 3600.0,
#
 lwdownstartdate1  = 19920101,
 lwdownstartdate2  = 003000,
 lwdownperiod      = 3600.0,
# "*period=-12" specifies monthly-mean forcing
 runoffperiod      = -12,
 &
#
 &EXF_NML_03
 exf_offset_atemp   = 273.15,
 exf_inscal_swdown  = -1.0,
 exf_inscal_lwdown  = -1.0,
 exf_inscal_runoff = 3.1710e-08,
 &
#
 &EXF_NML_04
 apressure_lon0    =   0.0000000D0,
 apressure_lon_inc =   0.2812500D0,
 apressure_lat0    = -89.7848850D0,
 apressure_lat_inc = 0.2786766D0,0.2803199D0,0.2806917D0,0.2808328D0,0.2809011D0,0.2809392D0,0.2809626D0,0.2809781D0,
                     0.2809888D0,0.2809965D0,0.2810023D0,0.2810067D0,0.2810102D0,0.2810129D0,0.2810151D0,
                     33*0.2810258D0,543*0.2810302D0,33*0.2810258D0,
                     0.2810151D0,0.2810129D0,0.2810102D0,0.2810067D0,0.2810023D0,0.2809965D0,0.2809888D0,0.2809781D0,
                     0.2809626D0,0.2809392D0,0.2809011D0,0.2808328D0,0.2806917D0,0.2803199D0,0.2786766D0,
 apressure_nlon    = 1280,
 apressure_nlat    = 640,
#
 atemp_lon0        =   0.0000000D0,
 atemp_lon_inc     =   0.2812500D0,
 atemp_lat0        = -89.7848850D0,
 atemp_lat_inc     = 0.2786766D0,0.2803199D0,0.2806917D0,0.2808328D0,0.2809011D0,0.2809392D0,0.2809626D0,0.2809781D0,
                     0.2809888D0,0.2809965D0,0.2810023D0,0.2810067D0,0.2810102D0,0.2810129D0,0.2810151D0,
                     33*0.2810258D0,543*0.2810302D0,33*0.2810258D0,
                     0.2810151D0,0.2810129D0,0.2810102D0,0.2810067D0,0.2810023D0,0.2809965D0,0.2809888D0,0.2809781D0,
                     0.2809626D0,0.2809392D0,0.2809011D0,0.2808328D0,0.2806917D0,0.2803199D0,0.2786766D0,
 atemp_nlon        = 1280,
 atemp_nlat        = 640,
#
 aqh_lon0        =   0.0000000D0,
 aqh_lon_inc     =   0.2812500D0,
 aqh_lat0        = -89.7848850D0,
 aqh_lat_inc     = 0.2786766D0,0.2803199D0,0.2806917D0,0.2808328D0,0.2809011D0,0.2809392D0,0.2809626D0,0.2809781D0,
                     0.2809888D0,0.2809965D0,0.2810023D0,0.2810067D0,0.2810102D0,0.2810129D0,0.2810151D0,
                     33*0.2810258D0,543*0.2810302D0,33*0.2810258D0,
                     0.2810151D0,0.2810129D0,0.2810102D0,0.2810067D0,0.2810023D0,0.2809965D0,0.2809888D0,0.2809781D0,
                     0.2809626D0,0.2809392D0,0.2809011D0,0.2808328D0,0.2806917D0,0.2803199D0,0.2786766D0,
 aqh_nlon        = 1280,
 aqh_nlat        = 640,
#
 precip_lon0        =   0.0000000D0,
 precip_lon_inc     =   0.2812500D0,
 precip_lat0        = -89.7848850D0,
 precip_lat_inc     = 0.2786766D0,0.2803199D0,0.2806917D0,0.2808328D0,0.2809011D0,0.2809392D0,0.2809626D0,0.2809781D0,
                     0.2809888D0,0.2809965D0,0.2810023D0,0.2810067D0,0.2810102D0,0.2810129D0,0.2810151D0,
                     33*0.2810258D0,543*0.2810302D0,33*0.2810258D0,
                     0.2810151D0,0.2810129D0,0.2810102D0,0.2810067D0,0.2810023D0,0.2809965D0,0.2809888D0,0.2809781D0,
                     0.2809626D0,0.2809392D0,0.2809011D0,0.2808328D0,0.2806917D0,0.2803199D0,0.2786766D0,
 precip_nlon        = 1280,
 precip_nlat        = 640,
#
 uwind_lon0        =   0.0000000D0,
 uwind_lon_inc     =   0.2812500D0,
 uwind_lat0        = -89.7848850D0,
 uwind_lat_inc     = 0.2786766D0,0.2803199D0,0.2806917D0,0.2808328D0,0.2809011D0,0.2809392D0,0.2809626D0,0.2809781D0,
                     0.2809888D0,0.2809965D0,0.2810023D0,0.2810067D0,0.2810102D0,0.2810129D0,0.2810151D0,
                     33*0.2810258D0,543*0.2810302D0,33*0.2810258D0,
                     0.2810151D0,0.2810129D0,0.2810102D0,0.2810067D0,0.2810023D0,0.2809965D0,0.2809888D0,0.2809781D0,
                     0.2809626D0,0.2809392D0,0.2809011D0,0.2808328D0,0.2806917D0,0.2803199D0,0.2786766D0,
 uwind_nlon        = 1280,
 uwind_nlat        = 640,
#
 vwind_lon0        =   0.0000000D0,
 vwind_lon_inc     =   0.2812500D0,
 vwind_lat0        = -89.7848850D0,
 vwind_lat_inc     = 0.2786766D0,0.2803199D0,0.2806917D0,0.2808328D0,0.2809011D0,0.2809392D0,0.2809626D0,0.2809781D0,
                     0.2809888D0,0.2809965D0,0.2810023D0,0.2810067D0,0.2810102D0,0.2810129D0,0.2810151D0,
                     33*0.2810258D0,543*0.2810302D0,33*0.2810258D0,
                     0.2810151D0,0.2810129D0,0.2810102D0,0.2810067D0,0.2810023D0,0.2809965D0,0.2809888D0,0.2809781D0,
                     0.2809626D0,0.2809392D0,0.2809011D0,0.2808328D0,0.2806917D0,0.2803199D0,0.2786766D0,
 vwind_nlon        = 1280,
 vwind_nlat        = 640,
#
 swdown_lon0        =   0.0000000D0,
 swdown_lon_inc     =   0.2812500D0,
 swdown_lat0        = -89.7848850D0,
 swdown_lat_inc     = 0.2786766D0,0.2803199D0,0.2806917D0,0.2808328D0,0.2809011D0,0.2809392D0,0.2809626D0,0.2809781D0,
                     0.2809888D0,0.2809965D0,0.2810023D0,0.2810067D0,0.2810102D0,0.2810129D0,0.2810151D0,
                     33*0.2810258D0,543*0.2810302D0,33*0.2810258D0,
                     0.2810151D0,0.2810129D0,0.2810102D0,0.2810067D0,0.2810023D0,0.2809965D0,0.2809888D0,0.2809781D0,
                     0.2809626D0,0.2809392D0,0.2809011D0,0.2808328D0,0.2806917D0,0.2803199D0,0.2786766D0,
 swdown_nlon        = 1280,
 swdown_nlat        = 640,
#
 lwdown_lon0        =   0.0000000D0,
 lwdown_lon_inc     =   0.2812500D0,
 lwdown_lat0        = -89.7848850D0,
 lwdown_lat_inc     = 0.2786766D0,0.2803199D0,0.2806917D0,0.2808328D0,0.2809011D0,0.2809392D0,0.2809626D0,0.2809781D0,
                     0.2809888D0,0.2809965D0,0.2810023D0,0.2810067D0,0.2810102D0,0.2810129D0,0.2810151D0,
                     33*0.2810258D0,543*0.2810302D0,33*0.2810258D0,
                     0.2810151D0,0.2810129D0,0.2810102D0,0.2810067D0,0.2810023D0,0.2809965D0,0.2809888D0,0.2809781D0,
                     0.2809626D0,0.2809392D0,0.2809011D0,0.2808328D0,0.2806917D0,0.2803199D0,0.2786766D0,
 lwdown_nlon        = 1280,
 lwdown_nlat        = 640,
#
 runoff_lon0       = 0.50D0,
 runoff_lon_inc    = 1.0D0,
 runoff_lat0       = -89.5D0,
 runoff_lat_inc    = 179*1.,
 runoff_nlon       = 360,
 runoff_nlat       = 180,
 &
